@<TRIPOS>MOLECULE
lig_ejm_31
   29    30     1     0     0
SMALL
USER_CHARGES


@<TRIPOS>ATOM
      1 H01          -6.0390   30.4790  -31.0830 H        1 UNK0       0.0000
      2 C            -1.9600   21.5500  -27.3300 C.2      1 UNK0       0.0000
      3 C            -1.2900   22.4100  -28.2000 C.2      1 UNK0       0.0000
      4 C            -1.9600   22.9500  -29.2900 C.2      1 UNK0       0.0000
      5 C            -3.3000   22.6200  -29.5400 C.2      1 UNK0       0.0000
      6 C            -3.9700   21.7600  -28.6500 C.2      1 UNK0       0.0000
      7 C            -3.2900   21.2300  -27.5600 C.2      1 UNK0       0.0000
      8 Cl           -5.6400   21.3500  -28.9200 Cl       1 UNK0       0.0000
      9 C            -4.0400   23.1500  -30.7100 C.2      1 UNK0       0.0000
     10 O            -4.2300   22.4200  -31.6700 O.2      1 UNK0       0.0000
     11 N            -4.5100   24.4100  -30.6500 N.pl3    1 UNK0       0.0000
     12 C            -5.2900   25.1100  -31.5800 C.2      1 UNK0       0.0000
     13 C            -5.9600   24.5500  -32.6800 C.2      1 UNK0       0.0000
     14 C            -6.7800   25.3600  -33.4600 C.2      1 UNK0       0.0000
     15 N            -6.9200   26.6500  -33.1800 N.2      1 UNK0       0.0000
     16 C            -6.3000   27.2300  -32.1600 C.2      1 UNK0       0.0000
     17 C            -5.5100   26.4600  -31.3100 C.2      1 UNK0       0.0000
     18 N            -6.5400   28.5800  -31.8800 N.pl3    1 UNK0       0.0000
     19 C            -5.7100   29.4500  -31.2300 C.2      1 UNK0       0.0000
     20 O            -4.6200   29.1200  -30.8100 O.2      1 UNK0       0.0000
     21 Cl           -1.1100   24.0500  -30.3300 Cl       1 UNK0       0.0000
     22 H            -1.4400   21.1300  -26.4800 H        1 UNK0       0.0000
     23 H            -0.2600   22.6600  -28.0200 H        1 UNK0       0.0000
     24 H            -3.8100   20.5600  -26.8900 H        1 UNK0       0.0000
     25 H            -4.3200   24.9800  -29.8400 H        1 UNK0       0.0000
     26 H            -5.8400   23.5000  -32.9100 H        1 UNK0       0.0000
     27 H            -7.3100   24.9400  -34.3000 H        1 UNK0       0.0000
     28 H            -5.0600   26.9100  -30.4300 H        1 UNK0       0.0000
     29 H            -7.4000   29.0100  -32.1800 H        1 UNK0       0.0000
@<TRIPOS>BOND
1 2 3 2
2 2 7 1
3 2 22 1
4 3 4 1
5 3 23 1
6 4 5 2
7 4 21 1
8 5 6 1
9 5 9 1
10 6 7 2
11 6 8 1
12 7 24 1
13 9 10 2
14 9 11 1
15 11 12 1
16 11 25 1
17 12 13 1
18 12 17 2
19 13 14 2
20 13 26 1
21 14 15 1
22 14 27 1
23 15 16 2
24 16 17 1
25 16 18 1
26 17 28 1
27 18 19 1
28 18 29 1
29 1 19 1
30 19 20 2
@<TRIPOS>SUBSTRUCTURE
     1 UNK0        1  GROUP    1 ****  UNK   
